10,'GENROU',1,9,0.05,1.5,0.05,4.2,0,1,0.69,0.3,0.31,0.2,0.125,0.4,0.8,/
12,'GENROU',1,9,0.05,1.5,0.05,4.2,0,1,0.69,0.3,0.31,0.2,0.125,0.4,0.8,/
25,'GENROU',1,9,0.05,1.5,0.05,4.2,0,1,0.69,0.3,0.31,0.2,0.125,0.4,0.8,/
26,'GENROU',1,9,0.05,1.5,0.05,4.2,0,1,0.69,0.3,0.31,0.2,0.125,0.4,0.8,/
31,'GENROU',1,9,0.05,1.5,0.05,4.2,0,1,0.69,0.3,0.31,0.2,0.125,0.4,0.8,/
46,'GENROU',1,9,0.05,1.5,0.05,4.2,0,1,0.69,0.3,0.31,0.2,0.125,0.4,0.8,/
49,'GENROU',1,9,0.05,1.5,0.05,4.2,0,1,0.69,0.3,0.31,0.2,0.125,0.4,0.8,/
54,'GENROU',1,9,0.05,1.5,0.05,4.2,0,1,0.69,0.3,0.31,0.2,0.125,0.4,0.8,/
59,'GENROU',1,9,0.05,1.5,0.05,4.2,0,1,0.69,0.3,0.31,0.2,0.125,0.4,0.8,/
61,'GENROU',1,9,0.05,1.5,0.05,4.2,0,1,0.69,0.3,0.31,0.2,0.125,0.4,0.8,/
65,'GENROU',1,9,0.05,1.5,0.05,4.2,0,1,0.69,0.3,0.31,0.2,0.125,0.4,0.8,/
66,'GENROU',1,9,0.05,1.5,0.05,4.2,0,1,0.69,0.3,0.31,0.2,0.125,0.4,0.8,/
69,'GENCLS',1,0, 0,/
80,'GENROU',1,9,0.05,1.5,0.05,4.2,0,1,0.69,0.3,0.31,0.2,0.125,0.4,0.8,/
87,'GENROU',1,9,0.05,1.5,0.05,4.2,0,1,0.69,0.3,0.31,0.2,0.125,0.4,0.8,/
89,'GENROU',1,9,0.05,1.5,0.05,4.2,0,1,0.69,0.3,0.31,0.2,0.125,0.4,0.8,/
100,'GENROU',1,9,0.05,1.5,0.05,4.2,0,1,0.69,0.3,0.31,0.2,0.125,0.4,0.8,/
103,'GENROU',1,9,0.05,1.5,0.05,4.2,0,1,0.69,0.3,0.31,0.2,0.125,0.4,0.8,/
111,'GENROU',1,9,0.05,1.5,0.05,4.2,0,1,0.69,0.3,0.31,0.2,0.125,0.4,0.8,/
10,'EXST1',1,0.02,1000,-1000,0.1,1,80,0.05,8,-3,0.2,0.1,1,/
12,'EXST1',1,0.02,1000,-1000,0.1,1,80,0.05,8,-3,0.2,0.1,1,/
25,'EXST1',1,0.02,1000,-1000,0.1,1,80,0.05,8,-3,0.2,0.1,1,/
26,'EXST1',1,0.02,1000,-1000,0.1,1,80,0.05,8,-3,0.2,0.1,1,/
31,'EXST1',1,0.02,1000,-1000,0.1,1,80,0.05,8,-3,0.2,0.1,1,/
46,'EXST1',1,0.02,1000,-1000,0.1,1,80,0.05,8,-3,0.2,0.1,1,/
49,'EXST1',1,0.02,1000,-1000,0.1,1,80,0.05,8,-3,0.2,0.1,1,/
54,'EXST1',1,0.02,1000,-1000,0.1,1,80,0.05,8,-3,0.2,0.1,1,/
59,'EXST1',1,0.02,1000,-1000,0.1,1,80,0.05,8,-3,0.2,0.1,1,/
61,'EXST1',1,0.02,1000,-1000,0.1,1,80,0.05,8,-3,0.2,0.1,1,/
65,'EXST1',1,0.02,1000,-1000,0.1,1,80,0.05,8,-3,0.2,0.1,1,/
66,'EXST1',1,0.02,1000,-1000,0.1,1,80,0.05,8,-3,0.2,0.1,1,/
/69,'EXST1',1,0.02,1000,-1000,0.1,1,80,0.05,8,-3,0.2,0.1,1,/
80,'EXST1',1,0.02,1000,-1000,0.1,1,80,0.05,8,-3,0.2,0.1,1,/
87,'EXST1',1,0.02,1000,-1000,0.1,1,80,0.05,8,-3,0.2,0.1,1,/
/89,'EXST1',1,0.02,1000,-1000,0.1,1,80,0.05,8,-3,0.2,0.1,1,/
100,'EXST1',1,0.02,1000,-1000,0.1,1,80,0.05,8,-3,0.2,0.1,1,/
103,'EXST1',1,0.02,1000,-1000,0.1,1,80,0.05,8,-3,0.2,0.1,1,/
111,'EXST1',1,0.02,1000,-1000,0.1,1,80,0.05,8,-3,0.2,0.1,1,/
10,'TGOV1',1,0.05,0.5,1000,-1000,2.1,7,0, /
12,'TGOV1',1,0.05,0.5,1000,-1000,2.1,7,0, /
25,'TGOV1',1,0.05,0.5,1000,-1000,2.1,7,0, /
26,'TGOV1',1,0.05,0.5,1000,-1000,2.1,7,0, /
31,'TGOV1',1,0.05,0.5,1000,-1000,2.1,7,0, /
46,'TGOV1',1,0.05,0.5,1000,-1000,2.1,7,0, /
49,'TGOV1',1,0.05,0.5,1000,-1000,2.1,7,0, /
54,'TGOV1',1,0.05,0.5,1000,-1000,2.1,7,0, /
59,'TGOV1',1,0.05,0.5,1000,-1000,2.1,7,0, /
61,'TGOV1',1,0.05,0.5,1000,-1000,2.1,7,0, /
65,'TGOV1',1,0.05,0.5,1000,-1000,2.1,7,0, /
66,'TGOV1',1,0.05,0.5,1000,-1000,2.1,7,0, /
/69,'TGOV1',1,0.05,0.5,1000,-1000,2.1,7,0, /
80,'TGOV1',1,0.05,0.5,1000,-1000,2.1,7,0, /
87,'TGOV1',1,0.05,0.5,1000,-1000,2.1,7,0, /
89,'TGOV1',1,0.05,0.5,1000,-1000,2.1,7,0, /
100,'TGOV1',1,0.05,0.5,1000,-1000,2.1,7,0, /
103,'TGOV1',1,0.05,0.5,1000,-1000,2.1,7,0, /
111,'TGOV1',1,0.05,0.5,1000,-1000,2.1,7,0, /
10, 'STAB1',1,4,1,5,0.1,1,0.1,0.2, /
12, 'STAB1',1,4,1,5,0.1,1,0.1,0.2, /
25, 'STAB1',1,4,1,5,0.1,1,0.1,0.2, /
26, 'STAB1',1,4,1,5,0.1,1,0.1,0.2, /
31, 'STAB1',1,4,1,5,0.1,1,0.1,0.2, /
46, 'STAB1',1,4,1,5,0.1,1,0.1,0.2, /
49, 'STAB1',1,4,1,5,0.1,1,0.1,0.2, /
54, 'STAB1',1,4,1,5,0.1,1,0.1,0.2, /
59, 'STAB1',1,4,1,5,0.1,1,0.1,0.2, /
61, 'STAB1',1,4,1,5,0.1,1,0.1,0.2, /
65, 'STAB1',1,4,1,5,0.1,1,0.1,0.2, /
66, 'STAB1',1,4,1,5,0.1,1,0.1,0.2, /
/69, 'STAB1',1,4,1,5,0.1,1,0.1,0.2, /
80, 'STAB1',1,4,1,5,0.1,1,0.1,0.2, /
87, 'STAB1',1,4,1,5,0.1,1,0.1,0.2, /
/89, 'STAB1',1,4,1,5,0.1,1,0.1,0.2, /
100, 'STAB1',1,4,1,5,0.1,1,0.1,0.2, /
103, 'STAB1',1,4,1,5,0.1,1,0.1,0.2, /
111, 'STAB1',1,4,1,5,0.1,1,0.1,0.2, /
